<?xml version="1.0" encoding="UTF-8"?>
<routes xmlns:xsi="http://www.w3.org/2001/XMLSchema-instance"
        xsi:noNamespaceSchemaLocation="http://sumo.dlr.de/xsd/routes_file.xsd">

    <!-- Vehicle types -->
    <vType id="car" accel="2.6" decel="4.5" sigma="0.5" length="5.0" maxSpeed="13.89"/>

    <!-- Routes for dynamic vehicle spawning -->
    <route id="route_0" edges="-E0 -E0.89"/>
    <route id="route_1" edges="-E0 E2"/>
    <route id="route_2" edges="-E0 -E1"/>
    <route id="route_3" edges="E0 E0.86"/>
    <route id="route_4" edges="E0 E2"/>
    <route id="route_5" edges="E0 -E1"/>
    <route id="route_6" edges="E1 E0.86"/>
    <route id="route_7" edges="E1 -E0.89"/>
    <route id="route_8" edges="E1 E2"/>
    <route id="route_9" edges="-E2 E0.86"/>
    <route id="route_10" edges="-E2 -E1"/>
    <route id="route_11" edges="-E2 -E0.89"/>
</routes>
